
#######################################################################
#
#                 Cambridge Crystallographic Data Centre
#                                CCDC 
#
#######################################################################
#
# If this CIF has been generated from an entry in the Cambridge 
# Structural Database, then it will include bibliographic, chemical, 
# crystal, experimental, refinement or atomic coordinate data resulting 
# from the CCDC's data processing and validation procedures.
#
#######################################################################

data_GULPAF
_symmetry_cell_setting           monoclinic
_symmetry_space_group_name_H-M   'P 21/n'
_symmetry_Int_Tables_number      14
_space_group_name_Hall           '-P 2yn'
loop_
_symmetry_equiv_pos_site_id
_symmetry_equiv_pos_as_xyz
1 x,y,z
2 1/2-x,1/2+y,1/2-z
3 -x,-y,-z
4 1/2+x,1/2-y,1/2+z
_cell_length_a                   13.4830(6)
_cell_length_b                   8.7738(4)
_cell_length_c                   19.4469(9)
_cell_angle_alpha                90
_cell_angle_beta                 93.159(3)
_cell_angle_gamma                90
_cell_volume                     2297.02
loop_
_atom_site_label
_atom_site_type_symbol
_atom_site_fract_x
_atom_site_fract_y
_atom_site_fract_z
Ag1 Ag 0.88263(2) 0.30779(4) 0.368210(16)
Ag2 Ag 1.33996(2) 0.53083(4) 0.422800(19)
Ag3 Ag 0.63204(2) 0.65189(4) 0.261940(19)
N1 N 1.4927(4) 0.6233(5) 0.3088(3)
N2 N 0.8013(3) 0.3796(4) 0.4565(2)
N3 N 0.7130(3) 0.4207(4) 0.2668(2)
N4 N 1.4118(2) 0.2702(4) 0.41622(19)
N5 N 1.2214(2) 0.3128(3) 0.36323(16)
N6 N 0.9186(2) 0.0187(3) 0.39193(17)
N7 N 1.1853(2) 0.0620(3) 0.39989(16)
N8 N 1.0551(2) 0.2335(3) 0.36830(15)
N9 N 0.9900(2) 0.5005(3) 0.31608(16)
C1 C 1.4288(4) 0.6044(5) 0.3429(3)
C2 C 0.7500(3) 0.4123(4) 0.4985(2)
C3 C 0.7697(3) 0.3262(5) 0.2682(2)
C4 C 1.5097(3) 0.2508(6) 0.4246(3)
H1 H 1.550(4) 0.338(6) 0.434(3)
C5 C 1.5556(3) 0.1136(6) 0.4181(3)
H2 H 1.6244 0.1056 0.4237
C6 C 1.4984(4) -0.0122(7) 0.4032(4)
H3 H 1.522(5) -0.109(7) 0.405(3)
C7 C 1.3961(3) 0.0034(5) 0.3953(3)
H4 H 1.355(3) -0.071(6) 0.384(2)
C8 C 1.3562(3) 0.1465(4) 0.4013(2)
C9 C 1.2479(3) 0.1748(4) 0.38743(19)
C10 C 0.8501(3) -0.0835(5) 0.4070(2)
H5 H 0.790(4) -0.054(5) 0.393(2)
C11 C 0.8724(4) -0.2234(5) 0.4371(2)
H6 H 0.819(3) -0.283(5) 0.443(2)
C12 C 0.9691(4) -0.2582(5) 0.4529(2)
H7 H 0.986(3) -0.348(5) 0.473(2)
C13 C 1.0424(3) -0.1549(4) 0.4379(2)
H8 H 1.111(4) -0.177(6) 0.449(3)
C14 C 1.0142(3) -0.0184(4) 0.40756(18)
C15 C 1.0892(3) 0.0978(4) 0.39110(17)
C16 C 1.1236(2) 0.3353(4) 0.35275(17)
C17 C 1.0887(2) 0.4805(4) 0.32108(17)
C18 C 1.1541(3) 0.5876(4) 0.2973(2)
H9 H 1.220(3) 0.567(5) 0.301(2)
C19 C 1.1158(3) 0.7196(5) 0.2670(2)
H10 H 1.155(3) 0.791(5) 0.252(2)
C20 C 1.0155(3) 0.7393(5) 0.2607(2)
H11 H 0.9882 0.8263 0.2399
C21 C 0.9551(3) 0.6275(4) 0.2858(2)
H12 H 0.887(4) 0.635(5) 0.283(2)
Ag1A Ag 0.61737(2) 0.80779(4) 0.131790(16)
Ag2B Ag 0.66004(2) 0.46917(4) 0.577200(19)
Ag3A Ag 0.86796(2) 0.15189(4) 0.238060(19)
Ag3_2 Ag 1.63204(2) 0.65189(4) 0.261940(19)
N1_2 N 0.4927(4) 0.6233(5) 0.3088(3)
C2B C 1.2500(3) 0.5877(4) 0.5015(2)
C3A C 0.7303(3) 0.8262(5) 0.2318(2)
loop_
_geom_bond_atom_site_label_1
_geom_bond_atom_site_label_2
_geom_bond_site_symmetry_1
_geom_bond_site_symmetry_2
Ag1 N2 1_555 1_555
Ag2 N4 1_555 1_555
Ag3 N3 1_555 1_555
N1 C1 1_555 1_555
N2 C2 1_555 1_555
N3 C3 1_555 1_555
N4 C4 1_555 1_555
N5 C9 1_555 1_555
N6 Ag1 1_555 1_555
N7 C9 1_555 1_555
N8 Ag1 1_555 1_555
N9 Ag1 1_555 1_555
C1 Ag2 1_555 1_555
C2 Ag2B 1_555 1_555
C3 Ag1 1_555 1_555
C4 H1 1_555 1_555
C5 C4 1_555 1_555
H2 C5 1_555 1_555
C6 C5 1_555 1_555
H3 C6 1_555 1_555
C7 C6 1_555 1_555
H4 C7 1_555 1_555
C8 N4 1_555 1_555
C9 C8 1_555 1_555
C10 N6 1_555 1_555
H5 C10 1_555 1_555
C11 C10 1_555 1_555
H6 C11 1_555 1_555
C12 C11 1_555 1_555
H7 C12 1_555 1_555
C13 C12 1_555 1_555
H8 C13 1_555 1_555
C14 N6 1_555 1_555
C15 N7 1_555 1_555
C16 N5 1_555 1_555
C17 N9 1_555 1_555
C18 C17 1_555 1_555
H9 C18 1_555 1_555
C19 C18 1_555 1_555
H10 C19 1_555 1_555
C20 C19 1_555 1_555
H11 C20 1_555 1_555
C21 N9 1_555 1_555
H12 C21 1_555 1_555
Ag1A Ag3 1_555 1_555
Ag3A Ag1 1_555 1_555
Ag3_2 N1 1_555 1_555
N1_2 Ag3 1_555 1_555
C2B Ag2 1_555 1_555
C3A Ag3 1_555 1_555
N8 C15 1_555 1_555
N8 C16 1_555 1_555
C3 Ag3A 1_555 1_555
C7 C8 1_555 1_555
C13 C14 1_555 1_555
C14 C15 1_555 1_555
C16 C17 1_555 1_555
C20 C21 1_555 1_555
Ag1A C3A 1_555 1_555

#END
