
#######################################################################
#
#                 Cambridge Crystallographic Data Centre
#                                CCDC 
#
#######################################################################
#
# If this CIF has been generated from an entry in the Cambridge 
# Structural Database, then it will include bibliographic, chemical, 
# crystal, experimental, refinement or atomic coordinate data resulting 
# from the CCDC's data processing and validation procedures.
#
#######################################################################

data_GULPOU
_symmetry_cell_setting           monoclinic
_symmetry_space_group_name_H-M   'P 21/c'
_symmetry_Int_Tables_number      14
_space_group_name_Hall           '-P 2ybc'
loop_
_symmetry_equiv_pos_site_id
_symmetry_equiv_pos_as_xyz
1 x,y,z
2 -x,1/2+y,1/2-z
3 -x,-y,-z
4 x,1/2-y,1/2+z
_cell_length_a                   10.8281(3)
_cell_length_b                   11.4808(4)
_cell_length_c                   15.8705(4)
_cell_angle_alpha                90
_cell_angle_beta                 109.3510(10)
_cell_angle_gamma                90
_cell_volume                     1861.49
loop_
_atom_site_label
_atom_site_type_symbol
_atom_site_fract_x
_atom_site_fract_y
_atom_site_fract_z
Cd1 Cd -0.002765(11) 0.159198(11) 0.460895(7)
C1 C 0.25838(18) 0.17952(16) 0.64120(11)
H1 H 0.3051 0.1747 0.6016
C2 C -0.19409(16) -0.01430(15) 0.55678(10)
C3 C 0.32617(18) 0.17513(16) 0.73189(12)
H2 H 0.4168 0.1675 0.7527
C4 C -0.30357(17) 0.06243(17) 0.56415(11)
H3 H -0.3774 0.0559 0.5093
H4 H -0.2742 0.1428 0.5697
C5 C 0.25666(18) 0.18231(15) 0.79181(11)
C6 C -0.35015(17) 0.03348(18) 0.64278(12)
H5 H -0.4228 0.0841 0.6408
H6 H -0.3817 -0.0462 0.6368
C7 C 0.12163(17) 0.19520(17) 0.75748(11)
H7 H 0.0724 0.2012 0.7955
C8 C -0.24224(17) 0.04757(17) 0.73304(11)
H8 H -0.1685 -0.0008 0.7338
H9 H -0.2129 0.1279 0.7395
C9 C 0.06144(18) 0.19900(17) 0.66557(11)
H10 H -0.0290 0.2078 0.6429
C10 C -0.28430(18) 0.01524(17) 0.81280(11)
H11 H -0.3305 -0.0585 0.8007
H12 H -0.3448 0.0738 0.8198
C11 C 0.32027(18) 0.17493(15) 0.88916(11)
H13 H 0.2700 0.1755 0.9267
C12 C -0.16891(18) 0.00503(16) 0.90104(11)
H14 H -0.2008 -0.0236 0.9475
H15 H -0.1061 -0.0508 0.8937
C13 C 0.61038(18) 0.13262(16) 1.04456(11)
H16 H 0.6525 0.1178 1.0032
C14 C -0.10175(17) 0.12132(16) 0.92926(10)
C15 C 0.71641(18) 0.14122(16) 1.29613(11)
H17 H 0.6815 0.1560 1.3413
C16 C 0.63360(17) 0.14388(16) 1.20841(12)
H18 H 0.5448 0.1592 1.1953
C17 C 0.68514(17) 0.12331(16) 1.13991(11)
C18 C 0.81774(17) 0.09648(17) 1.16404(11)
H19 H 0.8553 0.0799 1.1205
C19 C 0.89297(17) 0.09479(16) 1.25350(11)
H20 H 0.9813 0.0764 1.2686
N1 N 0.12761(14) 0.19053(13) 0.60809(9)
N2 N 0.44465(16) 0.16773(15) 0.92194(10)
N3 N 0.48928(15) 0.16036(15) 1.01620(10)
N4 N 0.84561(14) 0.11817(14) 1.31910(9)
O1 O -0.11459(13) 0.02617(12) 0.52148(8)
O2 O -0.18372(13) -0.11732(12) 0.58453(8)
O3 O -0.00074(13) 0.14555(11) 0.90998(8)
O4 O -0.15192(12) 0.19316(11) 0.96917(8)
Cd1_2 Cd 0.997235(11) 0.159198(11) 1.460895(7)
Cd1B Cd 0.002765(11) -0.159198(11) 0.539105(7)
Cd1C Cd -0.002765(11) 0.340802(11) 0.960895(7)
N4_2 N -0.15439(14) 0.11817(14) 0.31910(9)
O1B O 0.11459(13) -0.02617(12) 0.47852(8)
O2B O 0.18372(13) 0.11732(12) 0.41547(8)
O3C O -0.00074(13) 0.35445(11) 0.40998(8)
O4C O -0.15192(12) 0.30684(11) 0.46917(8)
loop_
_geom_bond_atom_site_label_1
_geom_bond_atom_site_label_2
_geom_bond_site_symmetry_1
_geom_bond_site_symmetry_2
Cd1 N1 1_555 1_555
C1 H1 1_555 1_555
C2 C4 1_555 1_555
C3 C1 1_555 1_555
H2 C3 1_555 1_555
C4 H3 1_555 1_555
H4 C4 1_555 1_555
C5 C3 1_555 1_555
C6 C4 1_555 1_555
H5 C6 1_555 1_555
H6 C6 1_555 1_555
C7 C5 1_555 1_555
H7 C7 1_555 1_555
C8 C6 1_555 1_555
H8 C8 1_555 1_555
H9 C8 1_555 1_555
C9 C7 1_555 1_555
H10 C9 1_555 1_555
C10 C8 1_555 1_555
H11 C10 1_555 1_555
H12 C10 1_555 1_555
C11 C5 1_555 1_555
H13 C11 1_555 1_555
C12 C10 1_555 1_555
H14 C12 1_555 1_555
H15 C12 1_555 1_555
C13 H16 1_555 1_555
C14 C12 1_555 1_555
C15 H17 1_555 1_555
C16 C15 1_555 1_555
H18 C16 1_555 1_555
C17 C13 1_555 1_555
C18 C17 1_555 1_555
H19 C18 1_555 1_555
C19 C18 1_555 1_555
H20 C19 1_555 1_555
N1 C1 1_555 1_555
N2 C11 1_555 1_555
N3 C13 1_555 1_555
N4 C15 1_555 1_555
O1 Cd1 1_555 1_555
O2 C2 1_555 1_555
O3 C14 1_555 1_555
O4 C14 1_555 1_555
Cd1_2 N4 1_555 1_555
Cd1B O1 1_555 1_555
Cd1C O3 1_555 1_555
N4_2 Cd1 1_555 1_555
O1B Cd1 1_555 1_555
O2B Cd1 1_555 1_555
O3C Cd1 1_555 1_555
O4C Cd1 1_555 1_555
C2 O1 1_555 1_555
C9 N1 1_555 1_555
C16 C17 1_555 1_555
C19 N4 1_555 1_555
N2 N3 1_555 1_555
O2 Cd1B 1_555 1_555
O4 Cd1C 1_555 1_555
Cd1B O1B 1_555 1_555

#END
