
#######################################################################
#
#                 Cambridge Crystallographic Data Centre
#                                CCDC 
#
#######################################################################
#
# If this CIF has been generated from an entry in the Cambridge 
# Structural Database, then it will include bibliographic, chemical, 
# crystal, experimental, refinement or atomic coordinate data resulting 
# from the CCDC's data processing and validation procedures.
#
#######################################################################

data_GULPOT
_symmetry_cell_setting           orthorhombic
_symmetry_space_group_name_H-M   'F d d 2'
_symmetry_Int_Tables_number      43
_space_group_name_Hall           'F 2 -2d'
loop_
_symmetry_equiv_pos_site_id
_symmetry_equiv_pos_as_xyz
1 x,y,z
2 -x,-y,z
3 1/4+x,1/4-y,1/4+z
4 1/4-x,1/4+y,1/4+z
5 x,1/2+y,1/2+z
6 -x,1/2-y,1/2+z
7 1/4+x,3/4-y,3/4+z
8 1/4-x,3/4+y,3/4+z
9 1/2+x,y,1/2+z
10 1/2-x,-y,1/2+z
11 3/4+x,1/4-y,3/4+z
12 3/4-x,1/4+y,3/4+z
13 1/2+x,1/2+y,z
14 1/2-x,1/2-y,z
15 3/4+x,3/4-y,1/4+z
16 3/4-x,3/4+y,1/4+z
_cell_length_a                   54.189(6)
_cell_length_b                   10.8971(12)
_cell_length_c                   12.3200(14)
_cell_angle_alpha                90
_cell_angle_beta                 90
_cell_angle_gamma                90
_cell_volume                     7275
loop_
_atom_site_label
_atom_site_type_symbol
_atom_site_fract_x
_atom_site_fract_y
_atom_site_fract_z
Cd1 Cd 0.113632(5) -0.19493(2) 0.25723(3)
N1 N 0.13121(8) -0.0109(4) 0.1918(4)
N2 N 0.08269(8) -0.0646(4) 0.1858(4)
O1 O 0.14897(6) -0.2758(3) 0.1662(3)
O2 O 0.16540(6) -0.4609(3) 0.1477(3)
O3 O 0.16038(6) -0.0916(3) 0.4353(3)
O4 O 0.13980(5) -0.2616(3) 0.3884(3)
F1 F 0.24015(6) -0.0384(3) 0.4871(4)
F2 F 0.23116(6) -0.1503(4) 0.6231(3)
F3 F 0.26870(6) -0.1061(4) 0.5907(3)
C1 C 0.16463(7) -0.3572(4) 0.1902(4)
C2 C 0.18538(7) -0.3263(3) 0.2683(4)
C3 C 0.18317(7) -0.2515(4) 0.3605(4)
C4 C 0.20377(7) -0.2261(4) 0.4244(4)
H1 H 0.2020 -0.1769 0.4856
C5 C 0.22687(7) -0.2724(4) 0.3989(4)
C6 C 0.22917(8) -0.3457(5) 0.3066(4)
H2 H 0.2445 -0.3766 0.2870
C7 C 0.20864(8) -0.3726(4) 0.2440(4)
H3 H 0.2105 -0.4233 0.1837
C8 C 0.15885(7) -0.1975(4) 0.3970(3)
C9 C 0.24729(9) -0.1370(5) 0.5438(5)
C10 C 0.2500 -0.2500 0.4688(5)
C11 C 0.15542(11) 0.0086(6) 0.1872(5)
H4 H 0.1661 -0.0575 0.1963
C12 C 0.16540(13) 0.1262(6) 0.1688(5)
H5 H 0.1824 0.1384 0.1654
C13 C 0.14931(17) 0.2217(6) 0.1563(5)
H6 H 0.1553 0.3008 0.1461
C14 C 0.12438(18) 0.2014(5) 0.1587(5)
H7 H 0.1134 0.2661 0.1486
C15 C 0.11557(12) 0.0830(5) 0.1764(5)
C16 C 0.08885(11) 0.0542(5) 0.1762(5)
C17 C 0.07103(16) 0.1422(8) 0.1605(9)
H8 H 0.0753 0.2243 0.1515
C18 C 0.04628(17) 0.1045(10) 0.1585(12)
H9 H 0.0338 0.1623 0.1488
C19 C 0.04053(14) -0.0131(9) 0.1703(9)
H10 H 0.0241 -0.0382 0.1706
C20 C 0.05926(10) -0.0969(7) 0.1819(5)
H11 H 0.0553 -0.1797 0.1873
Cd1M Cd 0.386368(5) -0.30507(2) 0.25723(3)
Cd1G Cd 0.136368(5) -0.44493(2) 0.00723(3)
Cd1C Cd 0.136368(5) 0.05507(2) 0.50723(3)
Cd1F Cd 0.363632(5) -0.05507(2) 0.00723(3)
Cd1B Cd 0.363632(5) -0.55507(2) 0.50723(3)
N1M N 0.36879(8) -0.4891(4) 0.1918(4)
N2M N 0.41731(8) -0.4354(4) 0.1858(4)
O1M O 0.35103(6) -0.2242(3) 0.1662(3)
O2M O 0.33460(6) -0.0391(3) 0.1477(3)
O2C O 0.08460(6) -0.2109(3) 0.3977(3)
O2B O 0.41540(6) -0.2891(3) 0.3977(3)
O3M O 0.33962(6) -0.4084(3) 0.4353(3)
O3G O 0.08962(6) -0.3416(3) 0.1853(3)
O3F O 0.41038(6) -0.1584(3) 0.1853(3)
O4M O 0.36020(5) -0.2384(3) 0.3884(3)
F1M F 0.25985(6) -0.4616(3) 0.4871(4)
F2M F 0.26884(6) -0.3497(4) 0.6231(3)
F3M F 0.23130(6) -0.3939(4) 0.5907(3)
C1M C 0.33537(7) -0.1428(4) 0.1902(4)
C2M C 0.31462(7) -0.1737(3) 0.2683(4)
C3M C 0.31683(7) -0.2485(4) 0.3605(4)
C4M C 0.29623(7) -0.2739(4) 0.4244(4)
H1M H 0.2980 -0.3231 0.4856
C5M C 0.27313(7) -0.2276(4) 0.3989(4)
C6M C 0.27083(8) -0.1543(5) 0.3066(4)
H2M H 0.2555 -0.1234 0.2870
C7M C 0.29136(8) -0.1274(4) 0.2440(4)
H3M H 0.2895 -0.0767 0.1837
C8M C 0.34115(7) -0.3025(4) 0.3970(3)
C9M C 0.25271(9) -0.3630(5) 0.5438(5)
C11M C 0.34458(11) -0.5086(6) 0.1872(5)
H4M H 0.3339 -0.4425 0.1963
C12M C 0.33460(13) -0.6262(6) 0.1688(5)
H5M H 0.3176 -0.6384 0.1654
C13M C 0.35069(17) -0.7217(6) 0.1563(5)
H6M H 0.3447 -0.8008 0.1461
C14M C 0.37562(18) -0.7014(5) 0.1587(5)
H7M H 0.3866 -0.7661 0.1486
C15M C 0.38443(12) -0.5830(5) 0.1764(5)
C16M C 0.41115(11) -0.5542(5) 0.1762(5)
C17M C 0.42897(16) -0.6422(8) 0.1605(9)
H8M H 0.4247 -0.7243 0.1515
C18M C 0.45372(17) -0.6045(10) 0.1585(12)
H9M H 0.4662 -0.6623 0.1488
C19M C 0.45947(14) -0.4869(9) 0.1703(9)
H10M H 0.4759 -0.4618 0.1706
C20M C 0.44074(10) -0.4031(7) 0.1819(5)
H11M H 0.4447 -0.3203 0.1873
loop_
_geom_bond_atom_site_label_1
_geom_bond_atom_site_label_2
_geom_bond_site_symmetry_1
_geom_bond_site_symmetry_2
Cd1 N1 1_555 1_555
N1 C11 1_555 1_555
N2 Cd1 1_555 1_555
O1 Cd1 1_555 1_555
O2 C1 1_555 1_555
O3 C8 1_555 1_555
O4 Cd1 1_555 1_555
F1 C9 1_555 1_555
F2 C9 1_555 1_555
F3 C9 1_555 1_555
C1 O1 1_555 1_555
C2 C1 1_555 1_555
C3 C2 1_555 1_555
C4 C3 1_555 1_555
H1 C4 1_555 1_555
C5 C4 1_555 1_555
C6 C5 1_555 1_555
H2 C6 1_555 1_555
C7 C2 1_555 1_555
H3 C7 1_555 1_555
C8 O4 1_555 1_555
C9 C10 1_555 1_555
C10 C5 1_555 1_555
C11 H4 1_555 1_555
C12 C11 1_555 1_555
H5 C12 1_555 1_555
C13 C12 1_555 1_555
H6 C13 1_555 1_555
C14 C13 1_555 1_555
H7 C14 1_555 1_555
C15 N1 1_555 1_555
C16 N2 1_555 1_555
C17 C16 1_555 1_555
H8 C17 1_555 1_555
C18 C17 1_555 1_555
H9 C18 1_555 1_555
C19 C18 1_555 1_555
H10 C19 1_555 1_555
C20 N2 1_555 1_555
H11 C20 1_555 1_555
Cd1M N1M 1_555 1_555
Cd1G O2 1_555 1_555
Cd1C O3 1_555 1_555
Cd1F O2M 1_555 1_555
Cd1B O3M 1_555 1_555
N1M C11M 1_555 1_555
N2M Cd1M 1_555 1_555
O1M Cd1M 1_555 1_555
O2M C1M 1_555 1_555
O2C Cd1 1_555 1_555
O2B Cd1M 1_555 1_555
O3M C8M 1_555 1_555
O3G Cd1 1_555 1_555
O3F Cd1M 1_555 1_555
O4M Cd1M 1_555 1_555
F1M C9M 1_555 1_555
F2M C9M 1_555 1_555
F3M C9M 1_555 1_555
C1M O1M 1_555 1_555
C2M C1M 1_555 1_555
C3M C2M 1_555 1_555
C4M C3M 1_555 1_555
H1M C4M 1_555 1_555
C5M C10 1_555 1_555
C6M C5M 1_555 1_555
H2M C6M 1_555 1_555
C7M C2M 1_555 1_555
H3M C7M 1_555 1_555
C8M O4M 1_555 1_555
C9M C10 1_555 1_555
C11M H4M 1_555 1_555
C12M C11M 1_555 1_555
H5M C12M 1_555 1_555
C13M C12M 1_555 1_555
H6M C13M 1_555 1_555
C14M C13M 1_555 1_555
H7M C14M 1_555 1_555
C15M N1M 1_555 1_555
C16M N2M 1_555 1_555
C17M C16M 1_555 1_555
H8M C17M 1_555 1_555
C18M C17M 1_555 1_555
H9M C18M 1_555 1_555
C19M C18M 1_555 1_555
H10M C19M 1_555 1_555
C20M N2M 1_555 1_555
H11M C20M 1_555 1_555
C3 C8 1_555 1_555
C6 C7 1_555 1_555
C14 C15 1_555 1_555
C15 C16 1_555 1_555
C19 C20 1_555 1_555
C3M C8M 1_555 1_555
C4M C5M 1_555 1_555
C6M C7M 1_555 1_555
C14M C15M 1_555 1_555
C15M C16M 1_555 1_555
C19M C20M 1_555 1_555

#END
