
#######################################################################
#
#                 Cambridge Crystallographic Data Centre
#                                CCDC 
#
#######################################################################
#
# If this CIF has been generated from an entry in the Cambridge 
# Structural Database, then it will include bibliographic, chemical, 
# crystal, experimental, refinement or atomic coordinate data resulting 
# from the CCDC's data processing and validation procedures.
#
#######################################################################

data_GULPUA
_symmetry_cell_setting           monoclinic
_symmetry_space_group_name_H-M   'P 21/c'
_symmetry_Int_Tables_number      14
_space_group_name_Hall           '-P 2ybc'
loop_
_symmetry_equiv_pos_site_id
_symmetry_equiv_pos_as_xyz
1 x,y,z
2 -x,1/2+y,1/2-z
3 -x,-y,-z
4 x,1/2-y,1/2+z
_cell_length_a                   10.667(6)
_cell_length_b                   11.908(6)
_cell_length_c                   13.161(7)
_cell_angle_alpha                90
_cell_angle_beta                 109.602(6)
_cell_angle_gamma                90
_cell_volume                     1574.86
loop_
_atom_site_label
_atom_site_type_symbol
_atom_site_fract_x
_atom_site_fract_y
_atom_site_fract_z
Cd1 Cd 0.06709(3) 0.05871(3) 0.39444(2)
C1 C -0.1940(5) 0.2089(4) 0.3685(4)
H1 H -0.2332 0.1382 0.3590
C2 C -0.1656(4) -0.0847(4) 0.3216(3)
C3 C -0.2745(5) 0.3021(4) 0.3618(4)
H2 H -0.3651 0.2939 0.3494
C4 C -0.2764(4) -0.1675(4) 0.3110(4)
H3 H -0.3501 -0.1277 0.3220
H4 H -0.2451 -0.2226 0.3682
C5 C -0.2166(5) 0.4082(4) 0.3740(4)
C6 C -0.3286(4) -0.2299(4) 0.2032(4)
H5 H -0.4050 -0.2742 0.2029
H6 H -0.3597 -0.1745 0.1462
C7 C -0.0804(5) 0.4163(4) 0.3888(4)
H7 H -0.0391 0.4859 0.3936
C8 C -0.2304(4) -0.3074(4) 0.1759(4)
C9 C -0.0099(5) 0.3186(4) 0.3960(4)
H8 H 0.0808 0.3240 0.4073
C10 C -0.2921(5) 0.5109(4) 0.3784(4)
H9 H -0.2520 0.5809 0.3831
C11 C -0.5803(5) 0.6043(4) 0.3920(4)
H10 H -0.6186 0.5340 0.3912
C12 C -0.6714(4) 0.9027(4) 0.4298(4)
H11 H -0.6298 0.9715 0.4514
C13 C -0.5929(5) 0.8110(4) 0.4307(4)
H12 H -0.5009 0.8182 0.4510
C14 C -0.6545(5) 0.7061(4) 0.4005(4)
C15 C -0.7917(5) 0.6991(4) 0.3745(4)
H13 H -0.8351 0.6304 0.3574
C16 C -0.8626(5) 0.7969(4) 0.3745(4)
H14 H -0.9545 0.7919 0.3565
N1 N -0.0635(4) 0.2157(3) 0.3879(3)
N2 N -0.4126(4) 0.5037(4) 0.3758(3)
N3 N -0.4627(4) 0.6118(4) 0.3857(3)
N4 N -0.8053(4) 0.8988(3) 0.3992(3)
O1 O -0.1014(3) -0.0498(2) 0.4172(2)
O2 O -0.1375(3) -0.0513(2) 0.2420(2)
O3 O -0.1299(3) -0.3440(3) 0.2491(2)
O4 O -0.2568(3) -0.3336(3) 0.0778(2)
Cd1_2 Cd -0.93291(3) 1.05871(3) 0.39444(2)
Cd1A Cd -0.06709(3) -0.44129(3) 0.10556(2)
Cd1B Cd -0.06709(3) -0.05871(3) 0.60556(2)
N4_2 N 0.1947(4) -0.1012(3) 0.3992(3)
O1B O 0.1014(3) 0.0498(2) 0.5828(2)
O3A O 0.1299(3) 0.1560(3) 0.2509(2)
O4A O 0.2568(3) 0.1664(3) 0.4222(2)
loop_
_geom_bond_atom_site_label_1
_geom_bond_atom_site_label_2
_geom_bond_site_symmetry_1
_geom_bond_site_symmetry_2
Cd1 N1 1_555 1_555
C1 H1 1_555 1_555
C2 C4 1_555 1_555
C3 C1 1_555 1_555
H2 C3 1_555 1_555
C4 H3 1_555 1_555
H4 C4 1_555 1_555
C5 C3 1_555 1_555
C6 C4 1_555 1_555
H5 C6 1_555 1_555
H6 C6 1_555 1_555
C7 C5 1_555 1_555
H7 C7 1_555 1_555
C8 C6 1_555 1_555
C9 C7 1_555 1_555
H8 C9 1_555 1_555
C10 C5 1_555 1_555
H9 C10 1_555 1_555
C11 H10 1_555 1_555
C12 H11 1_555 1_555
C13 C12 1_555 1_555
H12 C13 1_555 1_555
C14 C11 1_555 1_555
C15 C14 1_555 1_555
H13 C15 1_555 1_555
C16 C15 1_555 1_555
H14 C16 1_555 1_555
N1 C1 1_555 1_555
N2 C10 1_555 1_555
N3 C11 1_555 1_555
N4 C12 1_555 1_555
O1 Cd1 1_555 1_555
O2 Cd1 1_555 1_555
O3 C8 1_555 1_555
O4 C8 1_555 1_555
Cd1_2 N4 1_555 1_555
Cd1A O3 1_555 1_555
Cd1B O1 1_555 1_555
N4_2 Cd1 1_555 1_555
O1B Cd1 1_555 1_555
O3A Cd1 1_555 1_555
O4A Cd1 1_555 1_555
C2 O1 1_555 1_555
C2 O2 1_555 1_555
C9 N1 1_555 1_555
C13 C14 1_555 1_555
C16 N4 1_555 1_555
N2 N3 1_555 1_555
O4 Cd1A 1_555 1_555
Cd1B O1B 1_555 1_555

#END
