data_image0
_cell_length_a       8.8166
_cell_length_b       7.1279
_cell_length_c       6.9281
_cell_angle_alpha    98
_cell_angle_beta     108.94
_cell_angle_gamma    82.546

_symmetry_space_group_name_H-M    "P 1"
_symmetry_int_tables_number       1

loop_
  _symmetry_equiv_pos_as_xyz
  'x, y, z'

loop_
  _atom_site_label
  _atom_site_occupancy
  _atom_site_fract_x
  _atom_site_fract_y
  _atom_site_fract_z
  _atom_site_thermal_displace_type
  _atom_site_B_iso_or_equiv
  _atom_site_type_symbol
  Ba1      1.0000 0.34954  0.73470  0.90234  Biso   1.000  Ba
  Ba2      1.0000 0.65046  0.26530  0.09766  Biso   1.000  Ba
  Cu1      1.0000 0.00000  0.00000  0.00000  Biso   1.000  Cu
  C1       1.0000 0.16350  0.80900  0.34960  Biso   1.000  C
  C2       1.0000 0.83650  0.19100  0.65040  Biso   1.000  C
  H1       1.0000 0.08700  0.88700  0.40700  Biso   1.000  H
  H2       1.0000 0.91300  0.11300  0.59300  Biso   1.000  H
  O1       1.0000 0.16000  0.81840  0.16700  Biso   1.000  O
  O2       1.0000 0.84000  0.18160  0.83300  Biso   1.000  O
  O3       1.0000 0.26020  0.70420  0.46920  Biso   1.000  O
  O4       1.0000 0.73980  0.29580  0.53080  Biso   1.000  O
  C3       1.0000 0.19480  0.27340  0.95200  Biso   1.000  C
  C4       1.0000 0.80520  0.72660  0.04800  Biso   1.000  C
  H3       1.0000 0.10900  0.35200  0.98900  Biso   1.000  H
  H4       1.0000 0.89100  0.64800  0.01100  Biso   1.000  H
  O5       1.0000 0.30850  0.34680  0.93760  Biso   1.000  O
  O6       1.0000 0.69150  0.65320  0.06240  Biso   1.000  O
  O7       1.0000 0.17970  0.09590  0.93150  Biso   1.000  O
  O8       1.0000 0.82030  0.90410  0.06850  Biso   1.000  O
  C5       1.0000 0.12680  0.28040  0.40950  Biso   1.000  C
  C6       1.0000 0.87320  0.71960  0.59050  Biso   1.000  C
  H5       1.0000 0.11000  0.38500  0.50400  Biso   1.000  H
  H6       1.0000 0.89000  0.61500  0.49600  Biso   1.000  H
  O9       1.0000 0.00250  0.23670  0.26910  Biso   1.000  O
  O10      1.0000 0.99750  0.76330  0.73090  Biso   1.000  O
  O11      1.0000 0.26760  0.20780  0.43440  Biso   1.000  O
  O12      1.0000 0.73240  0.79220  0.56560  Biso   1.000  O
  O13      1.0000 0.50530  0.98710  0.76120  Biso   1.000  O
  O14      1.0000 0.49470  0.01290  0.23880  Biso   1.000  O
  H7       1.0000 0.44400  0.04100  0.66200  Biso   1.000  H
  H8       1.0000 0.55600  0.95900  0.33800  Biso   1.000  H
  H9       1.0000 0.58600  0.93400  0.73300  Biso   1.000  H
  H10      1.0000 0.41400  0.06600  0.26700  Biso   1.000  H
  O15      1.0000 0.50130  0.42380  0.71390  Biso   1.000  O
  O16      1.0000 0.49870  0.57620  0.28610  Biso   1.000  O
  H11      1.0000 0.43100  0.35600  0.62000  Biso   1.000  H
  H12      1.0000 0.56900  0.64400  0.38000  Biso   1.000  H
  H13      1.0000 0.57500  0.43200  0.66200  Biso   1.000  H
  H14      1.0000 0.42500  0.56800  0.33800  Biso   1.000  H
